35
        41.4
  C        1.12069       -2.20561        3.97517
  C        0.75384       -2.42197        2.68765
  C       -0.06526       -1.52443        2.07118
  C       -0.49156       -0.43392        2.75756
  C       -0.12641       -0.21603        4.03938
  C        0.68303       -1.11655        4.63652
  C        1.08726       -0.88015        6.05863
  N       -0.57851        0.90117        4.70598
  C       -0.22355        1.13340        5.99846
  N        0.58894        0.25581        6.64551
  O        1.16745       -3.52136        1.94121
  C        2.03336       -4.47419        2.54187
  O        1.81949       -1.64686        6.67823
  O       -0.41654       -1.79452        0.75245
  C       -1.29195       -0.90559        0.05809
  C       -1.53763       -1.38884       -1.36131
  C       -0.65259       -2.18096       -2.01603
  C       -0.90212       -2.60794       -3.26996
  C       -2.04386       -2.25369       -3.88920
  C       -2.93687       -1.47393       -3.25082
  C       -2.68684       -1.04751       -1.99650
  H        1.76968       -2.89881        4.50089
  H       -1.14207        0.30198        2.29864
  H       -0.58406        2.01336        6.51791
  H        0.85821        0.41788        7.60712
  H        2.24658       -5.24933        1.79977
  H        2.98432       -4.01386        2.82854
  H        1.55275       -4.95453        3.40009
  H       -2.24597       -0.85859        0.59820
  H       -0.84188        0.09364        0.00905
  H        0.27458       -2.48336       -1.53335
  H       -0.18071       -3.24098       -3.77855
  H       -2.24479       -2.59935       -4.89914
  H       -3.86057       -1.19078       -3.74740
  H       -3.42433       -0.42178       -1.50007
