10

  C       -0.32778       -1.38781        0.22771
  C        0.13792       -0.04717       -0.17516
  C        1.54358        0.21075       -0.54414
  O       -0.68280        0.89979       -0.20512
  H       -0.21058       -1.50445        1.30631
  H        0.24531       -2.16725       -0.27907
  H       -1.38180       -1.51991       -0.02520
  H        1.81605        1.24418       -0.31961
  H        2.21757       -0.44798        0.00810
  H        1.67593        0.03946       -1.61384

