84
	455.4
  C        4.22598        5.57756        1.14882
  C        3.85508        6.64650        0.42331
  C        2.57241        6.77658        0.05241
  C        1.67720        5.81764        0.36068
  C        2.02701        4.67901        1.02380
  C        3.32260        4.62303        1.47856
  C        3.71498        3.63524        2.30535
  C        1.13381        3.66252        1.33323
  C        1.53299        2.79999        2.33274
  C        2.80995        2.76395        2.77049
  C       -0.14110        3.47777        0.79278
  C       -1.04709        2.79199        1.57438
  C       -0.64484        2.04339        2.62013
  C        0.65270        1.97931        2.93932
  C       -0.59932        3.90366       -0.45781
  C       -1.95898        4.08582       -0.59489
  C       -2.82674        3.56011        0.29136
  C       -2.36957        2.83457        1.31773
  C        0.17907        4.12817       -1.60203
  C       -0.34863        4.98266       -2.54668
  C       -1.65805        5.30022       -2.55213
  C       -2.47346        4.77662       -1.63049
  C        2.24526        4.31299       -2.72763
  C        1.73856        5.27849       -3.51996
  C        0.42739        5.54092       -3.49574
  C        1.44003        3.58520       -1.87610
  C        4.13141        3.12142       -2.06928
  C        3.57205        4.09007       -2.80202
  C        1.97477        2.38783       -1.38826
  C        3.34841        2.25389       -1.39847
  C        3.96760        1.23105       -0.77092
  C        1.26784        1.26866       -0.96327
  C        1.91482        0.24904       -0.32274
  C        3.25392        0.26072       -0.18593
  C       -0.05290        1.06068       -1.22543
  C       -0.77094       -0.02460       -0.81799
  C       -0.10795       -0.90358       -0.00828
  C        1.22371       -0.79379        0.18493
  C       -2.12489       -0.19863       -1.08299
  C       -2.78048       -1.07534       -0.24211
  C       -2.10828       -1.92558        0.56354
  C       -0.77162       -1.88357        0.63260
  C       -2.89797        0.46653       -2.04035
  C       -4.25920        0.52763       -1.82048
  C       -4.85255       -0.23674       -0.88271
  C       -4.12539       -1.09623       -0.16136
  C       -2.46306        1.02739       -3.23461
  C       -3.29340        1.84911       -3.95830
  C       -4.57255        2.03177       -3.58088
  C       -5.06388        1.32691       -2.55375
  C       -0.85117        1.32636       -4.95533
  C       -1.64182        2.21137       -5.58060
  C       -2.86984        2.45678       -5.09281
  C       -1.26571        0.73275       -3.81903
  H        5.25781        5.51885        1.48602
  H        4.57781        7.41642        0.17228
  H        2.24962        7.65696       -0.49532
  H        0.65356        6.02251        0.07105
  H        4.73368        3.57659        2.67908
  H        3.13217        2.04294        3.51775
  H       -1.34881        1.44683        3.19510
  H        0.95271        1.31896        3.74873
  H       -3.90203        3.64232        0.15374
  H       -3.09069        2.33061        1.95638
  H       -2.08954        5.92656       -3.32879
  H       -3.54114        4.96269       -1.71605
  H        2.36131        5.81603       -4.23082
  H        0.02851        6.25685       -4.21005
  H        5.21163        3.00471       -2.10641
  H        4.21921        4.70697       -3.42057
  H        5.05219        1.16219       -0.73270
  H        3.78359       -0.54214        0.31996
  H       -0.57381        1.81515       -1.78849
  H        1.74642       -1.54997        0.76764
  H       -2.62898       -2.65492        1.18031
  H       -0.26118       -2.58768        1.28467
  H       -5.93035       -0.22632       -0.73687
  H       -4.64490       -1.75388        0.53195
  H       -5.24816        2.66749       -4.14739
  H       -6.12738        1.41070       -2.34091
  H        0.12485        1.08264       -5.36577
  H       -1.30726        2.69230       -6.49450
  H       -3.51736        3.12984       -5.64911
  H       -0.59178       -0.01048       -3.40445
