8
uracil
  O       -2.67675        2.30707       -0.00000
  C       -2.08489        1.20486       -0.00000
  C       -2.81206        0.00080       -0.00000
  C       -2.08502       -1.20224       -0.00000
  N       -0.72705       -1.17615       -0.00000
  C       -0.04719        0.00032        0.00000
  O        1.20366       -0.00002        0.00000
  N       -0.72716        1.17589       -0.00000

